94
	Energy:     398.5717404
C          2.10205        1.71962       -0.42315
C          2.95703        2.80730       -0.83322
C          4.33707        2.59011       -1.05349
C          4.85029        1.30353       -1.14735
C          3.97993        0.22403       -1.04924
C          2.66271        0.42939       -0.59531
C          0.62699        1.95653       -0.08584
C          0.32869        3.19017        0.55037
H          1.14388        3.82109        0.86359
C         -0.95930        3.53234        0.99623
C         -2.03921        2.74528        0.62317
H         -3.04507        2.98897        0.94290
C         -1.79491        1.49181        0.07991
H         -2.65023        0.83026        0.01512
C         -0.47323        1.02079       -0.13587
C          6.50180        2.84711       -4.22767
C          7.83880        2.97461       -4.61425
C          8.46727        1.95077       -5.32491
C          7.75414        0.79625       -5.65095
C          6.41850        0.66277       -5.26398
C          5.76457        1.67933       -4.53342
C          4.31633        1.52722       -4.14408
C          3.52972        2.68796       -3.95063
C          2.21709        2.59821       -3.47435
C          1.58662        1.34823       -3.40283
C          2.33831        0.18638       -3.55525
C          3.72133        0.26939       -3.78787
C         -1.20187        2.40324        3.49795
C          0.17829        2.16857        3.39436
C          0.64391        0.97467        2.85296
C         -0.26831        0.00869        2.40231
C         -1.62511        0.13660        2.71716
C         -2.13115        1.32462        3.29992
C         -3.61645        1.45945        3.51721
C         -4.11497        2.28653        4.54784
C         -5.48731        2.40524        4.77897
C         -6.39544        1.69474        3.99278
C         -5.92636        0.86120        2.97607
C         -4.55381        0.73723        2.74249
C          0.18928       -0.98757        1.33655
C         -0.36593       -0.52124       -0.09698
H          1.29259       -0.95951        1.33485
H         -0.08189       -2.03830        1.57231
H         -1.39336       -0.94379       -0.13354
H          0.11867       -0.98882       -0.97625
C         -1.12385        4.57814        2.10689
C         -1.64812        3.88214        3.44589
H         -1.76993        5.43368        1.81618
H         -0.11774        4.99274        2.33198
H         -1.37380        4.46744        4.34867
H         -2.74313        3.93181        3.33644
C          4.34409       -1.11635       -1.70606
C          4.57346       -0.91258       -3.27329
H          5.20949       -1.62281       -1.22825
H          3.47312       -1.79818       -1.59991
C          1.57686        3.79358       -2.76793
C          2.41448        4.12890       -1.45359
H          1.87122        4.82844       -0.79659
H          3.28185        4.73009       -1.80263
S         10.18156        2.12007       -5.82079
C          9.75272        2.92046       -7.36870
C          9.49235        2.10845       -8.59723
H         10.21331        2.39220       -9.39210
H          8.45840        2.29591       -8.95504
H          9.60553        1.02582       -8.37979
O          9.67646        4.13763       -7.41664
S         -8.15635        1.84736        4.29145
C         -7.92366        0.75090        6.92363
C         -8.16835        0.49441        5.47063
H         -7.75153        1.83244        7.10481
H         -8.80481        0.42408        7.51427
H         -7.02830        0.18509        7.25594
O         -8.38063       -0.64258        5.08103
H          4.99467        3.39644       -1.35384
H          5.86665        1.16936       -1.49689
H          6.07006        3.66546       -3.67215
H          8.38583        3.87370       -4.35984
H          8.23147        0.00160       -6.21027
H          5.89242       -0.23718       -5.55507
H         -3.44195        2.83446        5.19445
H         -5.84238        3.04626        5.57593
H         -6.62558        0.30563        2.36390
H         -4.24769        0.08619        1.93789
H          0.57079        1.25406       -3.03958
H          1.46603        4.68000       -3.42752
H          0.55784        3.49924       -2.43760
H          4.42228       -1.85599       -3.83897
H          5.64238       -0.65369       -3.33498
H          1.69865        0.90149        2.61741
H          0.89039        2.97157        3.54214
H         -2.28831       -0.65064        2.39274
H          2.07029       -0.43956       -0.53022
H          3.96212        3.67250       -4.04201
H          1.87518       -0.75608       -3.28874
